# generated using pymatgen
data_K(BH)6
_symmetry_space_group_name_H-M   'P 1'
_cell_length_a   10.53761658
_cell_length_b   10.53761658
_cell_length_c   10.53761658
_cell_angle_alpha   90.00000000
_cell_angle_beta   90.00000000
_cell_angle_gamma   90.00000000
_symmetry_Int_Tables_number   1
_chemical_formula_structural   K(BH)6
_chemical_formula_sum   'K8 B48 H48'
_cell_volume   1170.11130979
_cell_formula_units_Z   8
loop_
 _symmetry_equiv_pos_site_id
 _symmetry_equiv_pos_as_xyz
  1  'x, y, z'
loop_
 _atom_site_type_symbol
 _atom_site_label
 _atom_site_symmetry_multiplicity
 _atom_site_fract_x
 _atom_site_fract_y
 _atom_site_fract_z
 _atom_site_occupancy
  K  K0  1  0.25000000  0.25000000  0.25000000  1
  K  K1  1  0.25000000  0.25000000  0.75000000  1
  K  K2  1  0.25000000  0.75000000  0.75000000  1
  K  K3  1  0.25000000  0.75000000  0.25000000  1
  K  K4  1  0.75000000  0.25000000  0.75000000  1
  K  K5  1  0.75000000  0.25000000  0.25000000  1
  K  K6  1  0.75000000  0.75000000  0.25000000  1
  K  K7  1  0.75000000  0.75000000  0.75000000  1
  B  B8  1  0.91617492  0.13660558  0.00000000  1
  B  B9  1  0.08382508  0.13660558  0.00000000  1
  B  B10  1  0.13660558  0.00000000  0.91617492  1
  B  B11  1  0.50000000  0.08382508  0.36339442  1
  B  B12  1  0.86339442  0.00000000  0.08382508  1
  B  B13  1  0.86339442  0.00000000  0.91617492  1
  B  B14  1  0.50000000  0.08382508  0.63660558  1
  B  B15  1  0.00000000  0.41617492  0.63660558  1
  B  B16  1  0.13660558  0.00000000  0.08382508  1
  B  B17  1  0.58382508  0.36339442  0.00000000  1
  B  B18  1  0.41617492  0.36339442  0.00000000  1
  B  B19  1  0.00000000  0.41617492  0.36339442  1
  B  B20  1  0.91617492  0.63660558  0.50000000  1
  B  B21  1  0.08382508  0.63660558  0.50000000  1
  B  B22  1  0.13660558  0.50000000  0.41617492  1
  B  B23  1  0.50000000  0.58382508  0.86339442  1
  B  B24  1  0.86339442  0.50000000  0.58382508  1
  B  B25  1  0.86339442  0.50000000  0.41617492  1
  B  B26  1  0.50000000  0.58382508  0.13660558  1
  B  B27  1  0.00000000  0.91617492  0.13660558  1
  B  B28  1  0.13660558  0.50000000  0.58382508  1
  B  B29  1  0.58382508  0.86339442  0.50000000  1
  B  B30  1  0.41617492  0.86339442  0.50000000  1
  B  B31  1  0.00000000  0.91617492  0.86339442  1
  B  B32  1  0.41617492  0.13660558  0.50000000  1
  B  B33  1  0.58382508  0.13660558  0.50000000  1
  B  B34  1  0.63660558  0.00000000  0.41617492  1
  B  B35  1  0.00000000  0.08382508  0.86339442  1
  B  B36  1  0.36339442  0.00000000  0.58382508  1
  B  B37  1  0.36339442  0.00000000  0.41617492  1
  B  B38  1  0.00000000  0.08382508  0.13660558  1
  B  B39  1  0.50000000  0.41617492  0.13660558  1
  B  B40  1  0.63660558  0.00000000  0.58382508  1
  B  B41  1  0.08382508  0.36339442  0.50000000  1
  B  B42  1  0.91617492  0.36339442  0.50000000  1
  B  B43  1  0.50000000  0.41617492  0.86339442  1
  B  B44  1  0.41617492  0.63660558  0.00000000  1
  B  B45  1  0.58382508  0.63660558  0.00000000  1
  B  B46  1  0.63660558  0.50000000  0.91617492  1
  B  B47  1  0.00000000  0.58382508  0.36339442  1
  B  B48  1  0.36339442  0.50000000  0.08382508  1
  B  B49  1  0.36339442  0.50000000  0.91617492  1
  B  B50  1  0.00000000  0.58382508  0.63660558  1
  B  B51  1  0.50000000  0.91617492  0.63660558  1
  B  B52  1  0.63660558  0.50000000  0.08382508  1
  B  B53  1  0.08382508  0.86339442  0.00000000  1
  B  B54  1  0.91617492  0.86339442  0.00000000  1
  B  B55  1  0.50000000  0.91617492  0.36339442  1
  H  H56  1  0.14158098  0.23445099  0.00000000  1
  H  H57  1  0.85841902  0.23445099  0.00000000  1
  H  H58  1  0.23445099  0.00000000  0.85841902  1
  H  H59  1  0.50000000  0.14158098  0.26554901  1
  H  H60  1  0.76554901  0.00000000  0.14158098  1
  H  H61  1  0.76554901  0.00000000  0.85841902  1
  H  H62  1  0.50000000  0.14158098  0.73445099  1
  H  H63  1  0.00000000  0.35841902  0.73445099  1
  H  H64  1  0.23445099  0.00000000  0.14158098  1
  H  H65  1  0.64158098  0.26554901  0.00000000  1
  H  H66  1  0.35841902  0.26554901  0.00000000  1
  H  H67  1  0.00000000  0.35841902  0.26554901  1
  H  H68  1  0.14158098  0.73445099  0.50000000  1
  H  H69  1  0.85841902  0.73445099  0.50000000  1
  H  H70  1  0.23445099  0.50000000  0.35841902  1
  H  H71  1  0.50000000  0.64158098  0.76554901  1
  H  H72  1  0.76554901  0.50000000  0.64158098  1
  H  H73  1  0.76554901  0.50000000  0.35841902  1
  H  H74  1  0.50000000  0.64158098  0.23445099  1
  H  H75  1  0.00000000  0.85841902  0.23445099  1
  H  H76  1  0.23445099  0.50000000  0.64158098  1
  H  H77  1  0.64158098  0.76554901  0.50000000  1
  H  H78  1  0.35841902  0.76554901  0.50000000  1
  H  H79  1  0.00000000  0.85841902  0.76554901  1
  H  H80  1  0.64158098  0.23445099  0.50000000  1
  H  H81  1  0.35841902  0.23445099  0.50000000  1
  H  H82  1  0.73445099  0.00000000  0.35841902  1
  H  H83  1  0.00000000  0.14158098  0.76554901  1
  H  H84  1  0.26554901  0.00000000  0.64158098  1
  H  H85  1  0.26554901  0.00000000  0.35841902  1
  H  H86  1  0.00000000  0.14158098  0.23445099  1
  H  H87  1  0.50000000  0.35841902  0.23445099  1
  H  H88  1  0.73445099  0.00000000  0.64158098  1
  H  H89  1  0.14158098  0.26554901  0.50000000  1
  H  H90  1  0.85841902  0.26554901  0.50000000  1
  H  H91  1  0.50000000  0.35841902  0.76554901  1
  H  H92  1  0.64158098  0.73445099  0.00000000  1
  H  H93  1  0.35841902  0.73445099  0.00000000  1
  H  H94  1  0.73445099  0.50000000  0.85841902  1
  H  H95  1  0.00000000  0.64158098  0.26554901  1
  H  H96  1  0.26554901  0.50000000  0.14158098  1
  H  H97  1  0.26554901  0.50000000  0.85841902  1
  H  H98  1  0.00000000  0.64158098  0.73445099  1
  H  H99  1  0.50000000  0.85841902  0.73445099  1
  H  H100  1  0.73445099  0.50000000  0.14158098  1
  H  H101  1  0.14158098  0.76554901  0.00000000  1
  H  H102  1  0.85841902  0.76554901  0.00000000  1
  H  H103  1  0.50000000  0.85841902  0.26554901  1
